198
 generated by VMD
 H         4.601875        3.058113        4.188560
 H         5.698531        0.370154        9.687672
 O         4.149193        2.219217        4.140408
 O         5.719276        3.275160        8.222452
 H         6.028440        8.705138        7.392741
 H         5.651094        1.901795        9.801907
 H         6.004614        2.457631        7.663283
 O         5.307518        1.109240       10.212749
 H         4.295424        4.122079        9.250883
 O         3.522190        4.478346        9.613694
 H         6.346556        7.923025        6.039001
 O         6.651352        8.709435        6.573300
 H         6.572381        3.894897        8.271537
 O         3.480650        6.329806       11.973124
 H         3.484069        5.629398       11.324186
 H        11.617267        7.843253       17.128607
 O         6.645746        7.292060        9.954905
 H         0.641299        6.548755       15.517984
 H         7.407927        5.954900        9.064993
 O         4.046439        6.448727       15.454109
 H         3.263341        7.096583       11.379592
 O         7.710079        5.159769        8.559725
 H         8.216791        9.340365        8.475387
 O         8.721124        9.122792        9.207204
 H         6.531426        7.261374       10.914286
 H         4.595144        7.308823       15.360533
 H         1.806782        6.224986       14.533956
 O         0.873939        6.124484       14.698837
 H         8.185192        5.587353        7.788361
 H         9.346839        7.021787       16.642715
 H         9.886285        6.718099       17.943655
 O         9.772745        7.462429       17.383896
 H         6.690917        3.852016       14.452099
 H         5.247468        5.850214       18.394720
 H         6.074851       10.042471       17.861324
 H         9.845063        9.341061       18.307608
 O         6.033869        5.854828       19.054640
 O         9.945737       10.335449       18.127617
 H         7.502744        2.663836       13.843053
 H         5.973665        7.825100        9.444698
 O         7.557497        3.459930       14.499506
 O         5.206320       10.351380       17.475048
 H         9.708946       10.509809       17.219511
 O         7.571095        3.368170       17.445498
 H         5.547617       -0.233785       15.291216
 H         7.303671        4.269313       17.658751
 H         5.719719        5.273320       19.785530
 H         4.474139        1.723532       16.303257
 O         6.164198       12.026105        8.711019
 O        10.015853       17.128202        9.580853
 H        10.099954       16.149279        9.621670
 H        10.349628       12.994598        6.477213
 O         9.143928       14.689365        8.386473
 H         9.482309       15.295712        7.670711
 H         3.915332        7.931563        8.428115
 O         2.542307       13.490099       10.112263
 H         5.444550       11.874404        8.070607
 H         8.329573       14.411596        7.983089
 H         7.947793       12.804115        6.355865
 O         4.688497        8.539360        8.509292
 H         7.007531       11.971320        8.244816
 H         4.414720        9.316910        9.055008
 H         2.757664       16.829306        9.412889
 O         8.664093       12.264810        6.636065
 H         8.767619       11.494243        6.051107
 H         9.474075       16.206057        5.245526
 H        10.897038       16.479179        6.085110
 H         9.108569       10.482756       10.545210
 O         7.766311       11.247349       13.159340
 O         7.057734       14.313825       12.625509
 H         4.494399       12.031636       12.887706
 H         9.023011       17.642973       14.946213
 H         6.272602       14.231013       12.110133
 O         4.938850       11.146655       12.818087
 H         2.903235       10.600859       10.599415
 H         8.630099       11.260953       12.711254
 O         9.709071       11.070237       11.086313
 H         1.883669        6.568910        8.147835
 H         7.447628       13.413251       12.573612
 H         8.019798       11.171879       14.072361
 H         9.904956       11.846133       10.517108
 H         5.912246       11.213688       12.910486
 O         9.893071       18.009068       15.214374
 H        10.187844       18.505638       14.498202
 H         4.041102       13.268023       18.227913
 O        10.116694       15.961929       18.848042
 O         5.473727        8.740678       15.137528
 O         6.716315       14.263213       19.436729
 H         6.901203       14.796209       18.656261
 H         5.393023        9.391870       15.852237
 H         4.924952       11.162394       18.048067
 H         5.843562       13.843924       19.296923
 O         4.475763       12.670313       18.829142
 O         4.851882       13.382385       15.199429
 H         4.047958       12.871686       15.160300
 H         5.082973        9.198409       14.348043
 O        12.959762        3.848358        6.372735
 H        13.114190        3.696395        7.328835
 H        13.555354        6.976240        5.802242
 H        13.418471        5.591784        6.476746
 O        13.923166        6.409610        6.499078
 H        14.077019        8.970158        8.148001
 O         8.960925        6.826387        6.770040
 O        14.256289        9.667975        7.485710
 H        13.482030        3.217705        5.842600
 H        12.198361        9.367993       11.530869
 H        11.435325       10.646961       11.199844
 O        12.237477       10.146616       10.882195
 H         9.779792        7.178102        7.156421
 H         8.356053        7.546214        6.536582
 O        11.997018        7.820261       12.610802
 H        13.101943        2.049126       14.120211
 H         4.904016        5.249277       12.838462
 O         6.682099        7.322582       12.956541
 H        11.058320        7.530394       12.805661
 H        15.832803        6.020052       18.604351
 H        11.371450        5.639193        9.852818
 O         5.204058        4.802397       13.642137
 H         6.941808        8.077194       13.616938
 H         6.187943        6.641745       13.453510
 H        16.860546        6.376144       16.419088
 H        12.492195        7.196662       13.141044
 H         4.789460        5.304597       14.321334
 H        12.211963        6.757705       10.652353
 O        12.164224        6.265727        9.817988
 H         8.497225        8.218625        9.447627
 O        16.478004        6.506837       18.048515
 O        12.463632        7.848637       17.623005
 H        11.672681        7.408072       21.546423
 H        12.006718        7.458436       20.086658
 O        11.363884        7.863860       20.688108
 H        16.593979        9.404113       18.040825
 O        15.683409        9.025302       18.191025
 H        12.000752        3.640532       15.410035
 H        15.178184        2.306901       17.568621
 H        13.248462        4.624888       15.204883
 H        13.841433        2.909120       16.895294
 H        16.144287        7.444533       18.059723
 O        12.945377        3.734907       15.569766
 H        12.830550        8.735231       17.378452
 O        14.168667        2.307515       17.586618
 H        14.784928        9.162441       19.847008
 H        13.124827        9.423628       13.647704
 H        14.026623       14.075373       10.617728
 O        13.149837       14.463264       10.895576
 O        11.096834       12.937443        9.709389
 H        10.564424       13.473342        9.112188
 O        13.499058       10.300927       13.830538
 H        13.189526       14.434968       11.902703
 O        13.835876       17.225321        9.361933
 H        15.409482       12.819285       10.816752
 H        10.731158       14.382679        5.955536
 H        13.278838       16.621561        9.864488
 O        11.128549       13.437246        6.189089
 H        13.527654       18.120989        9.601435
 H        12.700003       10.819674       14.013472
 H        14.652092       11.123765       12.354408
 H         9.137601       17.353748        9.182104
 H        13.576378       10.311646       15.682030
 H        15.039457       11.421386       14.476119
 H        14.918838       12.981349       14.312923
 H         8.706205       19.569605       12.658490
 O         9.581627       19.230318       12.633586
 O        15.578302        6.912882        8.729790
 O        15.500262       12.320899       14.652676
 H         9.532823       18.589264       11.961043
 H        16.137571        6.164225        8.978530
 O        16.776125       10.300778       10.448289
 O        13.283399       14.169446       13.820002
 H        16.363733       13.973873       10.242796
 H        15.686237       12.244617       21.558878
 O        12.860656       12.597944       17.422798
 H        13.414006       13.405173       17.380890
 O        13.814327       10.256871       16.669504
 H        12.152097       12.819026       18.099806
 H        12.074224       12.336858       15.873117
 H        15.470730       11.050346       20.730574
 O        16.078123       11.803995       20.795492
 H        13.409018       11.026765       17.120352
 O        11.802873       12.181258       14.937905
 H        10.865560       11.941336       14.816216
 H        15.073564        9.444046       17.534157
 H        13.592391       10.917907       24.170889
 H        11.821616       13.607987       23.138597
 O        14.522130       11.325665       24.408342
 H        17.275400       10.557913       11.236638
 H        16.782122       12.439713       19.556465
 H         7.488475       16.362017       16.482115
 H        12.530015       13.579126       14.049379
 O         8.895032        8.498650       14.817298
 O        10.380850        9.871103       14.093447
 N         9.522147        9.647343       15.051664
 O         8.808314       10.642082       15.552033
 H        11.647965       11.619213        8.359685
 H        11.064917       10.036146        8.188318
 N        11.588955       10.796509        7.695806
 H        11.063796       11.033744        6.825234
 H        12.426508       10.439788        7.365388
